examples/case5_unbalanced/dss/Master.dss
! Symmetric three-phase network. Only the demand profiles are unbalanced.
Clear
New Circuit.case5_unbalanced phases=3 bus1=bus_001.1.2.3 basekV=11 pu=1 frequency=60

New Line.line_001_002 phases=3 bus1=bus_001.1.2.3 bus2=bus_002.1.2.3 length=1 units=none Rmatrix=[1.4 | 0.4 1.4 | 0.4 0.4 1.4] Xmatrix=[2.7 | 0.7 2.7 | 0.7 0.7 2.7] Cmatrix=[0 | 0 0 | 0 0 0] NormAmps=78.7295821622217
New Line.line_002_003 phases=3 bus1=bus_002.1.2.3 bus2=bus_003.1.2.3 length=1 units=none Rmatrix=[2.8 | 0.8 2.8 | 0.8 0.8 2.8] Xmatrix=[4.05 | 1.05 4.05 | 1.05 1.05 4.05] Cmatrix=[0 | 0 0 | 0 0 0] NormAmps=52.4863881081478
New Line.line_003_004 phases=3 bus1=bus_003.1.2.3 bus2=bus_004.1.2.3 length=1 units=none Rmatrix=[3.36 | 0.96 3.36 | 0.96 0.96 3.36] Xmatrix=[4.32 | 1.12 4.32 | 1.12 1.12 4.32] Cmatrix=[0 | 0 0 | 0 0 0] NormAmps=31.4918328648887
New Line.line_002_005 phases=3 bus1=bus_002.1.2.3 bus2=bus_005.1.2.3 length=1 units=none Rmatrix=[2.8 | 0.8 2.8 | 0.8 0.8 2.8] Xmatrix=[3.51 | 0.91 3.51 | 0.91 0.91 3.51] Cmatrix=[0 | 0 0 | 0 0 0] NormAmps=41.9891104865182

Set VoltageBases=[11]
CalcVoltageBases
